-------------------------------------------------------
          Amber 18 PMEMD                              2018
          -------------------------------------------------------

  [-O]verwriting output

File Assignments:

 Here is the input file:

&cntrl
  nmropt = 0,       imin = 0,
  ntx    = 1,       irest  = 0,       ntrx = 1,      ntxo   = 1,
  ntpr   = 1000,    ntwx   = 2500,     ntwv = 0,      ntwe   = 0,
  ntwr   = 10000,   ig = 9,          iwrap = 1,

  ntf    = 2,       ntb    = 2,
  cut    = 8.0,    nsnb   = 20,

  nstlim = 100000,   nscm   = 2500,   iwrap = 0,
  t      = 0.0,     dt     = 0.002,

  temp0  = 300.0,    tautp=0.5,
  tempi  = 300.0,    ntt   = 1,

  ntp    = 2,       taup = 1.0,
  ntc    = 2,       tol    = 0.00001,

  ibelly=0, ntr=1, restraintmask=':299,684,1069,1454', restraint_wt=5.0,
 /

--------------------------------------------------------------------------------
   1.  RESOURCE   USE:
--------------------------------------------------------------------------------

 getting new box info from bottom of inpcrd
 NATOM  =  136475 NTYPES =      20 NBONH =  124503 MBONA  =   12300
 NTHETH =   25484 MTHETA =   16760 NPHIH =   49798 MPHIA  =   41808
 NHPARM =       0 NPARM  =       0 NNB   =  279016 NRES   =   39341
 NBONA  =   12300 NTHETA =   16760 NPHIA =   41808 NUMBND =      59
 NUMANG =     126 NPTRA  =      55 NATYP =      44 NPHB   =       1
 IFBOX  =       1 NMXRS  =      39 IFCAP =       0 NEXTRA =       0
 NCOPY  =       0

     BOX TYPE: RECTILINEAR

--------------------------------------------------------------------------------
   2.  CONTROL  DATA  FOR  THE  RUN
--------------------------------------------------------------------------------

General flags:
     imin    =       0, nmropt  =       0

Nature and format of input:
     ntx     =       1, irest   =       0, ntrx    =       1

Nature and format of output:
     ntxo    =       1, ntpr    =    1000, ntrx    =       1, ntwr    =   10000
     iwrap   =       0, ntwx    =    2500, ntwv    =       0, ntwe    =       0
     ioutfm  =       1, ntwprt  =       0, idecomp =       0, rbornstat=      0

Potential function:
     ntf     =       2, ntb     =       2, igb     =       0, nsnb    =      20
     ipol    =       0, gbsa    =       0, iesp    =       0
     dielc   =   1.00000, cut     =   8.00000, intdiel =   1.00000

Frozen or restrained atoms:
     ibelly  =       0, ntr     =       1
     restraint_wt =   5.00000

Molecular dynamics:
     nstlim  =    100000, nscm    =         0, nrespa  =         1
     t       =   0.00000, dt      =   0.00200, vlimit  =  -1.00000

Berendsen (weak-coupling) temperature regulation:
     temp0   = 300.00000, tempi   = 300.00000, tautp   =   0.50000

Pressure regulation:
     ntp     =       2
     pres0   =   1.00000, comp    =  44.60000, taup    =   1.00000

SHAKE:
     ntc     =       2, jfastw  =       0
     tol     =   0.00001

Ewald parameters:
     verbose =       0, ew_type =       0, nbflag  =       1, use_pme =       1
     vdwmeth =       1, eedmeth =       1, netfrc  =       1
     Box X =  123.832   Box Y =  134.366   Box Z =   81.309
     Alpha =   90.000   Beta  =   90.000   Gamma =   90.000
     NFFT1 =  128       NFFT2 =  128       NFFT3 =   84
     Cutoff=    8.000   Tol   =0.100E-04
     Ewald Coefficient =  0.34864
     Interpolation order =    4

    LOADING THE CONSTRAINED ATOMS AS GROUPS

   5.  REFERENCE ATOM COORDINATES

     Mask :299,684,1069,1454; matches    56 atoms

--------------------------------------------------------------------------------
   3.  ATOMIC COORDINATES AND VELOCITIES
--------------------------------------------------------------------------------

 begin time read from input coords =  5040.000 ps

 Number of triangulated 3-point waters found:    37761

     Sum of charges from parm topology file =   0.00006726
     Forcing neutrality...

--------------------------------------------------------------------------------
   4.  RESULTS
 NSTEP =        0   TIME(PS) =       0.000  TEMP(K) =   431.32  PRESS =    49.2
 Etot   =   -281125.0270  EKtot   =    122106.5497  EPtot      =   -403231.5767
 BOND   =      4556.4009  ANGLE   =     11655.9647  DIHED      =     15914.2517
 1-4 NB =      5173.9604  1-4 EEL =     67832.3738  VDWAALS    =     38959.1966
 EELEC  =   -547323.7247  EHBOND  =         0.0000  RESTRAINT  =         0.0000
 EKCMT  =     33823.8985  VIRIAL  =     32387.6785  VOLUME     =   1352875.3571
                                                    Density    =         1.0447
 ------------------------------------------------------------------------------

      A V E R A G E S   O V E R     100 S T E P S

 NSTEP =   100000   TIME(PS) =     200.000  TEMP(K) =   299.99  PRESS =     2.4
 Etot   =   -318608.3599  EKtot   =     84927.5657  EPtot      =   -403535.9256
 BOND   =      4498.7339  ANGLE   =     11565.2270  DIHED      =     15785.8353
 1-4 NB =      5285.9551  1-4 EEL =     68095.9705  VDWAALS    =     38890.3280
 EELEC  =   -547672.4332  EHBOND  =         0.0000  RESTRAINT  =        14.4579
 EAMBER (non-restraint)  =   -403550.3834
 EKCMT  =     34134.3258  VIRIAL  =     34064.5462  VOLUME     =   1352350.8441
                                                    Density    =         1.0451
 ------------------------------------------------------------------------------

      R M S  F L U C T U A T I O N S

 NSTEP =   100000   TIME(PS) =     200.000  TEMP(K) =     0.53  PRESS =    74.0
 Etot   =        98.4717  EKtot   =       149.8998  EPtot      =       160.0283
 BOND   =        48.0530  ANGLE   =        82.5856  DIHED      =        50.4097
 1-4 NB =        27.8398  1-4 EEL =        85.2631  VDWAALS    =       243.1603
 EELEC  =       327.7260  EHBOND  =         0.0000  RESTRAINT  =         2.5668
 EAMBER (non-restraint)  =       157.4616
 EKCMT  =       121.4232  VIRIAL  =      2157.4232  VOLUME     =       853.8512
                                                    Density    =         0.0007
 ------------------------------------------------------------------------------
